*==========================================================
* ON Semiconductor LM393
*
* This model was developed by:
* AEI Systems, LLC
* 5777 W. Century Blvd. Suite 1160
* Los Angeles, California 90045
* Copyright 2015, All Rights Reserved.
*
* This model is subject to change without notice.
* Users may not directly or indirectly re-sell or 
* re-distribute this model. This model may not 
* be used, modified, or altered 
* without the consent of AEi Systems. 
*
* For more information regarding modeling services,
* model libraries and simulation products, please
* call AEi Systems at (310) 216-1144, or contact 
* AEi by email: info@aeng.com. http://www.AENG.com
*
* $Revision:   1.0b  $
* $Author:   C.E. HYMOWITZ  $
* $Date:     8 May 2016 20:00:00  $
*==========================================================
*$
.SUBCKT LM393 1 2 3 4 5
*             | | | | |
*             | | | | Output Open Collector
*             | | | Negative Supply or Ground
*             | | Positive Supply
*             | Inverting Input
*             Non-inverting Input
*
*
* The following comparators are covered by this model:
*      LM393
*
* Date of model creation: 5-8-2016_6:00:00_PM
*
* Revision History:
*      REV A: 8 May 2016, Initial Input
*      REV B: 27 June 2016 
*       
*       
*
* Recommendations:
*      Use PSPICE (or SPICE 2G6; other simulators may require translation)
*      For a quick, effective design, use a combination of: data sheet
*            specs, bench testing, and simulations with this macromodel
*      For high impedance circuits, set GMIN=100F in the .OPTIONS statement
*
* Supported:
*      Typical performance for temperature range (0 to 70) degrees Celsius
*      DC & Transient analyses.
*      Most specs, including: offsets, input impedance,
*            open loop gain, voltage ranges, supply current, ... , etc.
*      Temperature effects for Ibias, Iquiescent, & Vsat 
*
* Not Supported:
*      Some Variation in specs vs. Power Supply Voltage
*      Vos distribution, Ib distribution for Monte Carlo
*      Distortion (detailed non-linear behavior)
*      Some Temperature analysis
*      Process variation
*      Behavior outside normal operating region
*      Operation as an amplifier
*
$CDNENCSTART
eee8c5c7a2bc4b01f045f303678664e7916da0bae22e8cb0bba041dd67c69ce448ea70148a9ac1670c8926c1ac5057c8ccfcd77bf87ca9dcbb08548900865a31
282c6ad581f89e46118c532c51eaced0b58937d5c381341a04da1bda05f751c61741243e77d18a09bf2e1c2a700f973dae73d471701dea55d2d307e49bd97bb3
76772fcaed53044f6f31076d2b37e96bb58937d5c381341a04da1bda05f751c61741243e77d18a09bf2e1c2a700f973dae73d471701dea55d2d307e49bd97bb3
2be465b6ad4cad1ca71cc1b59a10e9037fa9da3d151000fcbe1c12db7e32fbeb2ab8bcd0f35386f23037c3965af53c7cdd0e7ad6d0065e138a7898b256066058
db31c8ccd2fb318ff45310c19b6b8ee559f616b93b38d33c0308484362f2ed78b6cf82b1a47980592834b073df7edd46a41d3efaf822b0e0ba6f25bcd5046fec
3932f520130e842ea71cc1b59a10e9035612731c1899ee6a63a99c18378328bc2ab8bcd0f35386f23037c3965af53c7cdd0e7ad6d0065e138a7898b256066058
bfc9f1a18d2eda1cbfb31f27af21c96eadfe2689dbd1cbc8b5a66fa6cc68bc9a5eb2fd6193036f90d9d14c243c85e8755d41fdb508b954bcb950e11de8e200af
0ab7b93a7ec6d416a0062141238b855cfbac274d56622b5e973f27bf13045b53b6cf82b1a47980592834b073df7edd46a41d3efaf822b0e0ba6f25bcd5046fec
f0da0fe8e9949e3fba5eaa4b68130358f4c3b7c7dbd89947cd3e984f262414e03a682bee8eea9294504fab14d706ae0880029500c3def277b36963714d1c5ea6
93b55fc6e63e8eddf45310c19b6b8ee5c867144c2c5de019a69d2cd9b5de6d5dceb0d0ec028d845a66edf309ac1c7e7e2b79ac85701863dbfe0fb07843a909fe
6a1fa4ac0de87e33f45310c19b6b8ee502392b30032bf44ca69d2cd9b5de6d5dceb0d0ec028d845a66edf309ac1c7e7e2b79ac85701863dbfe0fb07843a909fe
42cad0d02e943b3cd6bd78cbde01efd6d6769f456ffaaa7ca69d2cd9b5de6d5dceb0d0ec028d845a66edf309ac1c7e7e2b79ac85701863dbfe0fb07843a909fe
8c405d8e2d6eabbef45310c19b6b8ee5be7fd4e04021b9215b77d901b87ae92b734ca891959d8d1f9b5016fda7195d21a4d54d1e927046f5f5b3110e03d9c3bd
4cd06853ab5548841852d2bae25628720f25e094102b98002440000a911914027f0fa930676c64cb5b77d901b87ae92b734ca891959d8d1f5f5973b2a6c7b148
7cb86961b1d9e0f448145007386465db167e951ed918cd7127806d6587b4f094feb717b23ca5edd7cbbcdcf8bf29d9313a682bee8eea9294564d7376c3af95c1
b0fb847a3b385fda46b92e86e8aaa0ba856d9230a7ed0973a69d2cd9b5de6d5dceb0d0ec028d845a66edf309ac1c7e7e2b79ac85701863dbfe0fb07843a909fe
daa809011f19a6e042efcf8bf49fd1983b80ac1888121a3504da1bda05f751c61741243e77d18a09bf2e1c2a700f973dae73d471701dea55d2d307e49bd97bb3
8f10d309634521e5a71cc1b59a10e9039a98713b750e7897b7414701a30abb5ab6cf82b1a47980592834b073df7edd46a41d3efaf822b0e0ba6f25bcd5046fec
836b1094b37bfef146b92e86e8aaa0bae695fddc831d0f1ca69d2cd9b5de6d5dceb0d0ec028d845a66edf309ac1c7e7e2b79ac85701863dbfe0fb07843a909fe
281c026029c854652b353e4191caa13fb5dd89e0eada5e2f653f886f76471a140a1b7b52a4a7583e2ab8bcd0f35386f23037c3965af53c7c7e19f82a8df66562
7f10af3ca63f7fa5de407278591bf89374d6bad323c0f9c6970729395fa5aff0a6d4990149c366b32ab8bcd0f35386f23037c3965af53c7c7e19f82a8df66562
a9d298bb70acb5acf45310c19b6b8ee5eac7334faaadd31d006fd8f4a33ce7b7b6cf82b1a47980592834b073df7edd46a41d3efaf822b0e0ba6f25bcd5046fec
4f4f9ff1e68401aaccde9c518370a9020119b9489eec9bd1460d95b349f574d2706b807646b80371a69d2cd9b5de6d5dceb0d0ec028d845a69558a5280f288f4
95a38c0bf484b9678dc6150e9752de32e7176f31e5605d4448f3b44185d301da77524f290e81059ba69d2cd9b5de6d5dceb0d0ec028d845a69558a5280f288f4
8782f1c39799a5621b36a76c242b138ac342d976e2d60b85b286a0400261dae477650768851a0100b2d86adc0d37ac3c22607b8e0300e92c99d2aecdeb04d33a
904e90e8e5b2fbfda71cc1b59a10e9036fd5bce168fccf64b7414701a30abb5ab6cf82b1a47980592834b073df7edd46a41d3efaf822b0e0ba6f25bcd5046fec
bc79ddba924fd6b66f31076d2b37e96b40a7226c8e893e935b77d901b87ae92b734ca891959d8d1f9b5016fda7195d21a4d54d1e927046f5f5b3110e03d9c3bd
b9ae3ed49b33ef9df45310c19b6b8ee5def53bcb933c6082b32500fc2043c0a24efe0cd80eca0d8404da1bda05f751c61741243e77d18a093e1265f670c683d7
2b76ba2308b7e6b182aefb8769a55e18caa18b32c7cb3fd8f82b2a2a09dd4d66c46c2824c9fff4521efda568f8b88501118fd7ffdb24f3c3960e6ea1c1da1c09
635adb6c201b6ba1aecfdb5e1a40f0108c75d703ed7db3553938a86cf3cb0a65b6cf82b1a47980592834b073df7edd46a41d3efaf822b0e0ba6f25bcd5046fec
c33d7a94b494464b6f31076d2b37e96b574a356ce4b06f8804da1bda05f751c61741243e77d18a09bf2e1c2a700f973dae73d471701dea55d2d307e49bd97bb3
926e9caa89fe3708f45310c19b6b8ee5f781e12679ed7e204c184d7a733c090eec3b77e0a3e1c5a0cf5e9389f2a48e3c3a682bee8eea9294564d7376c3af95c1
4aa74561b2f15095f45310c19b6b8ee5adada638b46b2ae55b77d901b87ae92b734ca891959d8d1f9b5016fda7195d21a4d54d1e927046f5f5b3110e03d9c3bd
c7e7e79d641b837a118c532c51eaced0a6571dc5c50db9f35b77d901b87ae92b734ca891959d8d1f9b5016fda7195d21a4d54d1e927046f5f5b3110e03d9c3bd
57a1528dc6fc191af45310c19b6b8ee559481f370456e98d687d14888b3fec063a682bee8eea9294504fab14d706ae0880029500c3def277b36963714d1c5ea6
172ebc888ce307f5625208ab2af5be52b312ebf73e385a50b7e3e4292ebc07ee5d41fdb508b954bc978e30f8219b806c9cde1267bdb77a8a4c6273455db2e9e3
a3aae5a2addceb3b9fbfa9fbb8a333306241fb632702aee5bd161adf131987de734ca891959d8d1f9b5016fda7195d21a4d54d1e927046f5f5b3110e03d9c3bd
82ffa445b37280d7c502c707c7a3cfc363a66fb476b8e3cf32ce9c8cba5c885ca997e4709d030d515b77d901b87ae92b734ca891959d8d1f5f5973b2a6c7b148
7cb86961b1d9e0f448145007386465db167e951ed918cd7127806d6587b4f094feb717b23ca5edd7cbbcdcf8bf29d9313a682bee8eea9294564d7376c3af95c1
f197831ab997cb5146b92e86e8aaa0baf1b7ccb9ac612b80a69d2cd9b5de6d5dceb0d0ec028d845a66edf309ac1c7e7e2b79ac85701863dbfe0fb07843a909fe
683f0afab66bd4982b353e4191caa13fb5dd89e0eada5e2f653f886f76471a14846d90c89d08d7ee2ab8bcd0f35386f23037c3965af53c7c7e19f82a8df66562
6574fb835fe903480930c8acfa113a6fce68086f32e8867fe6a767d192af093d1b7efa2c4fa86b755d41fdb508b954bc978e30f8219b806c7ca74a52b6cf9392
f77ae684f3bee76bf45310c19b6b8ee5bee48d2c54982c092365cb43df832d2f110da95e0625f202b2d86adc0d37ac3c22607b8e0300e92c99d2aecdeb04d33a
31481da19e278b3c1951b3a43e5fda7eb9da5a323298879b0698bedf5fc2d78983f5907341564badfcb206a5fa22e498687b0ae91d18fa263bf01e23347d4ec3
21672b368d611c439ce94a35e56330bc04da1bda05f751c61741243e77d18a09bf2e1c2a700f973dae73d471701dea5532c9409f4c0352785b74c8022e6904be
8fa7e6595bf5a67e5d41fdb508b954bc978e30f8219b806c9cde1267bdb77a8af4af0e290e0406987d493940b647eeb76280187f725fe0d898a4a1bae373dbd8
706cbe236337354e769044945c5a111261d90810b63c42825b77d901b87ae92b734ca891959d8d1f9b5016fda7195d21a4d54d1e927046f5f5b3110e03d9c3bd
c94861b9cdf63676d4dddbcfb70cc3775587916f02d77a4c7b6e5e4751d08e30734ca891959d8d1f9b5016fda7195d21a4d54d1e927046f5f5b3110e03d9c3bd
8b0a1b2bb70ba090aecfdb5e1a40f010bad043d36138cf5a460d95b349f574d2706b807646b80371a69d2cd9b5de6d5dceb0d0ec028d845a69558a5280f288f4
955e9c115061f7d56f31076d2b37e96ba6571dc5c50db9f35b77d901b87ae92b734ca891959d8d1f9b5016fda7195d21a4d54d1e927046f5f5b3110e03d9c3bd
cde4d26b358b4875ad0d410c5c14c377018b05945f92c825661c6c5a6c3f664f3a682bee8eea9294504fab14d706ae0880029500c3def277b36963714d1c5ea6
efc8ebd2eb5bbe7cf45310c19b6b8ee5b0c2208c057436d1687d14888b3fec063a682bee8eea9294504fab14d706ae0880029500c3def277b36963714d1c5ea6
7c54dff84d438311f45310c19b6b8ee5d5a527a7ecd44b06973f27bf13045b53b6cf82b1a47980592834b073df7edd46a41d3efaf822b0e0ba6f25bcd5046fec
2b8d3c1572277b809ebea82edad950759c70a93173b8d58f48f3b44185d301da225920464fe5eb96a69d2cd9b5de6d5dceb0d0ec028d845a69558a5280f288f4
7cb86961b1d9e0f496fc3c27debc65bf1f1bfa482c1e92fc6ed39a523b0135da58dd2930668656a4b2d86adc0d37ac3c22607b8e0300e92c99d2aecdeb04d33a
dd450011cca44d461852d2bae256287256a33d6a424c72b92440000a911914022732a933f9d247085b77d901b87ae92b734ca891959d8d1f5f5973b2a6c7b148
7cb86961b1d9e0f448145007386465db167e951ed918cd7127806d6587b4f094feb717b23ca5edd7cbbcdcf8bf29d9313a682bee8eea9294564d7376c3af95c1
6e07ca95bf59e24c1852d2bae256287263a66fb476b8e3cf2440000a91191402a997e4709d030d515b77d901b87ae92b734ca891959d8d1f5f5973b2a6c7b148
7cb86961b1d9e0f448145007386465db167e951ed918cd7127806d6587b4f094feb717b23ca5edd7cbbcdcf8bf29d9313a682bee8eea9294564d7376c3af95c1
0a09c50ac3eb1ddb2fbfcc2b872ff9469a73aa1a04aeb478ecd15350991019a3ebfbde9c40a762efd440be2779ae39dd5b77d901b87ae92b0f46e6c72cedcc12
845d9a586189aae6735cc2a94a5a1d9b57d058f43e97a6b7970729395fa5aff0925457437fcd4858b870f3c717e3eb00734ca891959d8d1f5f5973b2a6c7b148
0a73c37a67ae1bcf8dc6150e9752de32898b282015b6f469c0a9224731a582b404da1bda05f751c61741243e77d18a09bf2e1c2a700f973dd8a46580e374d6ea
2dbdd1f19d21f2c6f45310c19b6b8ee5adf742e229c36e2604da1bda05f751c61741243e77d18a09bf2e1c2a700f973dae73d471701dea55d2d307e49bd97bb3
ae4adb31e6cc5e90f45310c19b6b8ee5e9ade471b03b029d04da1bda05f751c61741243e77d18a09bf2e1c2a700f973dae73d471701dea55d2d307e49bd97bb3
6d55b688263994cff45310c19b6b8ee5fad7b13ec8ec215004da1bda05f751c61741243e77d18a09bf2e1c2a700f973dae73d471701dea55d2d307e49bd97bb3
32e8f00fa6aadb0e2fbfcc2b872ff9469a73aa1a04aeb478d19a8eef63f6676a08a0ef1d458827b4a18d3479f85e50a278e413f5bb25c9ce75645871994ff9ed
981655313fe0e30bf45310c19b6b8ee536b71d841c336efef174df7990b349d604da1bda05f751c61741243e77d18a09bf2e1c2a700f973dd8a46580e374d6ea
1bc6275d0e1adda01b335ff66691221518f98fe42c707551ecd15350991019a3bedc0f29d2940b231ae7e86de5a53bf6b6cf82b1a47980597626ea6e86623947
31481da19e278b3c16eb88e4e79e1000fe04cd99e29b63808be343c44a6ad57a3e545235d0f00f76a10ab49fa31ead27f33a7535b753e2640496aba1a20b409d
316271e02765c438b6cf82b1a47980592834b073df7edd46a41d3efaf822b0e0b913d1341f018a67a139108a4177de18fc633209e840336e6110de46e46126f6
d3f206ca50441f6cf45310c19b6b8ee5db676eb63cece20b5e26d75c63b144974dc962dac14ed0a6b2d86adc0d37ac3c22607b8e0300e92c99d2aecdeb04d33a
fcfda7af8999f5d5f45310c19b6b8ee5bcb8845692cb2463661c6c5a6c3f664f3a682bee8eea9294504fab14d706ae0880029500c3def277b36963714d1c5ea6
e3a4951a15bbf04bf45310c19b6b8ee5788247b56509fbc6d785d21ababb85bc8c018b003ed37e9b734ca891959d8d1f9b5016fda7195d21952b7ffcffbdb0af
a819b7acc64ea453f45310c19b6b8ee509d43afa57774477d785d21ababb85bc8c018b003ed37e9b734ca891959d8d1f9b5016fda7195d21952b7ffcffbdb0af
b0d3d1c4e169ca4a706b807646b80371e0ed2e2a3a7161f57f20537ce108d11aa60d4cc09ffef62c0df8e081aa3a65af04da1bda05f751c62ce1a62da20d9e88
85adedd7c53238bff45310c19b6b8ee5f6b1e5eb398a1895661c6c5a6c3f664f3a682bee8eea9294504fab14d706ae0880029500c3def277b36963714d1c5ea6
644727dbdf1373a4f45310c19b6b8ee50d1a4b4ccf9a8be2f4bd4addbcef76aea69d2cd9b5de6d5dceb0d0ec028d845a66edf309ac1c7e7ec12d525e4e2be140
7cea6f37083889476f31076d2b37e96b8254bac5ba09e16813b1663dd85f362c9183e9179e2d0dc77f007a8b9df19fd0bdca261c428d1e372fdb594098788838
f75fabf4fc9c089c46b92e86e8aaa0bad9ada98ed18f66592ce1cc5a89b7a0ca04da1bda05f751c61741243e77d18a09bf2e1c2a700f973dd8a46580e374d6ea
43bcccf36927f563f45310c19b6b8ee5f2afbcda7658898e2ce1cc5a89b7a0ca04da1bda05f751c61741243e77d18a09bf2e1c2a700f973dd8a46580e374d6ea
638b98468a100340118c532c51eaced012083d7c12678c59661c6c5a6c3f664f3a682bee8eea9294504fab14d706ae0880029500c3def277b36963714d1c5ea6
53e25219de8bdd066f31076d2b37e96bcc7e1f1f840e9a83661c6c5a6c3f664f3a682bee8eea9294504fab14d706ae0880029500c3def277b36963714d1c5ea6
0e4cb28663d007fff45310c19b6b8ee58497617087e57c7dcbf8c88b11c206bca3adc8d149ea40945b77d901b87ae92b734ca891959d8d1f5f5973b2a6c7b148
c0758198155a8c18f45310c19b6b8ee5c11d9e64fd0fb525661c6c5a6c3f664f3a682bee8eea9294504fab14d706ae0880029500c3def277b36963714d1c5ea6
ed75c210a9f51c9a8dc6150e9752de3258af0b8e786e633a03abcfd88793b00881d198212301ed532ab8bcd0f35386f23037c3965af53c7c7e19f82a8df66562
44f117741689d591ba5eaa4b68130358e155ddf484313e2da90b7182fb7d2e605d41fdb508b954bc978e30f8219b806c9cde1267bdb77a8a4c6273455db2e9e3
3c76beba9b808c12b41fc50835871c49476cba50ab52711f04da1bda05f751c61741243e77d18a09bf2e1c2a700f973dae73d471701dea55d2d307e49bd97bb3
1e7e75f62a07f7b185a6acbd7ba6f42afda7dca219ba5263b67527f318e3d85ce5de08de9f3b38c5953bcb31128691c3c0854be3ec1b3839e44c49bce26acafc
a7d14b727dc7d7d31e04a6a22e0b40b9b53e010da18a1e1de10f414a36c2498252288c6713f2bd2fc8d0fb7d767ad79bcbbcdcf8bf29d93102e8ef6ae41bb056
d7072740a938f0e79119f12b5e5dba4cc150e3ba08da98b228bcdc364cf87e1a0c5da2c9b4385dc72ab8bcd0f35386f23037c3965af53c7c7e19f82a8df66562
$CDNENCFINISH
.ENDS
*$
